-------------------------------------------------------
          Amber 18 SANDER                              2018
          -------------------------------------------------------

  [-O]verwriting output

File Assignments:

 Here is the input file:

Equilibration of the whole system at 100 K for 10 ps with shake at constant volume and constant temperature
 &cntrl
  nmropt = 0,
  ntx = 1,	irest = 0,	ntrx = 1,	ntxo = 1,
  ntpr = 1000,	ntwx = 1000,	ntwv = 1000,	ntwe = 1000,
  ntwr = 1000,

  ntf = 2,	ntb = 1,
  cut = 10.0,	nsnb = 20,

  ibelly = 0,	ntr = 0,

  imin = 0,
  nstlim = 5000,
  nscm = 500,
  t = 0.0,	dt = 0.002,

  temp0 = 100.0, tempi = 100.0,
  ntt = 1,
  vrand = 0,
  vlimit = 15.0,

  ntc = 2,
 &end

--------------------------------------------------------------------------------
   1.  RESOURCE   USE:
--------------------------------------------------------------------------------

 getting new box info from bottom of inpcrd

 NATOM  =   47604 NTYPES =      18 NBONH =   46631 MBONA  =     906
 NTHETH =    2017 MTHETA =    1233 NPHIH =    4165 MPHIA  =    3845
 NHPARM =       0 NPARM  =       0 NNB   =   70902 NRES   =   15444
 NBONA  =     906 NTHETA =    1233 NPHIA =    3845 NUMBND =      85
 NUMANG =     189 NPTRA  =     211 NATYP =      47 NPHB   =       1
 IFBOX  =       1 NMXRS  =      72 IFCAP =       0 NEXTRA =       0
 NCOPY  =       0

     BOX TYPE: RECTILINEAR

--------------------------------------------------------------------------------
   2.  CONTROL  DATA  FOR  THE  RUN
--------------------------------------------------------------------------------

default_name

General flags:
     imin    =       0, nmropt  =       0

Nature and format of input:
     ntx     =       1, irest   =       0, ntrx    =       1

Nature and format of output:
     ntxo    =       1, ntpr    =    1000, ntrx    =       1, ntwr    =    1000
     iwrap   =       0, ntwx    =    1000, ntwv    =    1000, ntwe    =    1000
     ioutfm  =       1, ntwprt  =       0, idecomp =       0, rbornstat=      0

Potential function:
     ntf     =       2, ntb     =       1, igb     =       0, nsnb    =      20
     ipol    =       0, gbsa    =       0, iesp    =       0
     dielc   =   1.00000, cut     =  10.00000, intdiel =   1.00000

Frozen or restrained atoms:
     ibelly  =       0, ntr     =       0

Molecular dynamics:
     nstlim  =      5000, nscm    =       500, nrespa  =         1
     t       =   0.00000, dt      =   0.00200, vlimit  =  15.00000

Berendsen (weak-coupling) temperature regulation:
     temp0   = 100.00000, tempi   = 100.00000, tautp   =   1.00000

SHAKE:
     ntc     =       2, jfastw  =       0
     tol     =   0.00001

Ewald parameters:
     verbose =       0, ew_type =       0, nbflag  =       1, use_pme =       1
     vdwmeth =       1, eedmeth =       1, netfrc  =       1
     Box X =   71.564   Box Y =   75.415   Box Z =   82.491
     Alpha =   90.000   Beta  =   90.000   Gamma =   90.000
     NFFT1 =   72       NFFT2 =   75       NFFT3 =   90
     Cutoff=   10.000   Tol   =0.100E-04
     Ewald Coefficient =  0.27511
     Interpolation order =    4

--------------------------------------------------------------------------------
   3.  ATOMIC COORDINATES AND VELOCITIES
--------------------------------------------------------------------------------

default_name
 begin time read from input coords =    10.000 ps

 Number of triangulated 3-point waters found:    15246

     Sum of charges from parm topology file =   0.00000192
     Forcing neutrality...

--------------------------------------------------------------------------------
   4.  RESULTS
 NSTEP =        0   TIME(PS) =       0.000  TEMP(K) =   148.44  PRESS =     0.0
 Etot   =   -181266.3275  EKtot   =     14185.5992  EPtot      =   -195451.9268
 BOND   =        90.5161  ANGLE   =       362.9369  DIHED      =      1270.0031
 1-4 NB =       349.1674  1-4 EEL =      3513.4069  VDWAALS    =     37498.1523
 EELEC  =   -238536.1095  EHBOND  =         0.0000  RESTRAINT  =         0.0000
 Ewald error estimate:   0.1600E-03
 ------------------------------------------------------------------------------

      A V E R A G E S   O V E R    5000 S T E P S

 NSTEP =     5000   TIME(PS) =      10.000  TEMP(K) =    95.28  PRESS =     0.0
 Etot   =   -182029.9209  EKtot   =      9105.2900  EPtot      =   -191135.2109
 BOND   =       137.1087  ANGLE   =       479.8721  DIHED      =      1298.1756
 1-4 NB =       353.8192  1-4 EEL =      3518.6790  VDWAALS    =     35850.5750
 EELEC  =   -232773.4405  EHBOND  =         0.0000  RESTRAINT  =         0.0000
 Ewald error estimate:   0.9436E-04
 ------------------------------------------------------------------------------

      R M S  F L U C T U A T I O N S

 NSTEP =     5000   TIME(PS) =      10.000  TEMP(K) =     6.69  PRESS =     0.0
 Etot   =      1136.3851  EKtot   =       639.4145  EPtot      =       516.4904
 BOND   =         7.5151  ANGLE   =        15.9919  DIHED      =         6.2833
 1-4 NB =         4.2192  1-4 EEL =        13.3293  VDWAALS    =       516.7187
 EELEC  =       978.9994  EHBOND  =         0.0000  RESTRAINT  =         0.0000
 Ewald error estimate:   0.4334E-04
 ------------------------------------------------------------------------------
