-------------------------------------------------------
          Amber 18 SANDER                              2018
          -------------------------------------------------------

  [-O]verwriting output

File Assignments:

 Here is the input file:

Equilibration of the whole system at 300 K for 10 ps with shake at constant volume and constant temperature
 &cntrl
  nmropt = 0,
  ntx = 1,	irest = 0,	ntrx = 1,	ntxo = 1,
  ntpr = 1000,	ntwx = 1000,	ntwv = 1000,	ntwe = 1000,
  ntwr = 1000,

  ntf = 2,	ntb = 1,
  cut = 10.0,	nsnb = 20,

  ibelly = 0,	ntr = 0,

  imin = 0,
  nstlim = 5000,
  nscm = 500,
  t = 0.0,	dt = 0.002,

  temp0 = 300.0, tempi = 300.0,
  ntt = 1,
  vrand = 0,
  vlimit = 15.0,

  ntc = 2,
 &end

--------------------------------------------------------------------------------
   1.  RESOURCE   USE:
--------------------------------------------------------------------------------

 getting new box info from bottom of inpcrd

 NATOM  =   47604 NTYPES =      18 NBONH =   46631 MBONA  =     906
 NTHETH =    2017 MTHETA =    1233 NPHIH =    4165 MPHIA  =    3845
 NHPARM =       0 NPARM  =       0 NNB   =   70902 NRES   =   15444
 NBONA  =     906 NTHETA =    1233 NPHIA =    3845 NUMBND =      85
 NUMANG =     189 NPTRA  =     211 NATYP =      47 NPHB   =       1
 IFBOX  =       1 NMXRS  =      72 IFCAP =       0 NEXTRA =       0
 NCOPY  =       0

     BOX TYPE: RECTILINEAR

--------------------------------------------------------------------------------
   2.  CONTROL  DATA  FOR  THE  RUN
--------------------------------------------------------------------------------

default_name

General flags:
     imin    =       0, nmropt  =       0

Nature and format of input:
     ntx     =       1, irest   =       0, ntrx    =       1

Nature and format of output:
     ntxo    =       1, ntpr    =    1000, ntrx    =       1, ntwr    =    1000
     iwrap   =       0, ntwx    =    1000, ntwv    =    1000, ntwe    =    1000
     ioutfm  =       1, ntwprt  =       0, idecomp =       0, rbornstat=      0

Potential function:
     ntf     =       2, ntb     =       1, igb     =       0, nsnb    =      20
     ipol    =       0, gbsa    =       0, iesp    =       0
     dielc   =   1.00000, cut     =  10.00000, intdiel =   1.00000

Frozen or restrained atoms:
     ibelly  =       0, ntr     =       0

Molecular dynamics:
     nstlim  =      5000, nscm    =       500, nrespa  =         1
     t       =   0.00000, dt      =   0.00200, vlimit  =  15.00000

Berendsen (weak-coupling) temperature regulation:
     temp0   = 300.00000, tempi   = 300.00000, tautp   =   1.00000

SHAKE:
     ntc     =       2, jfastw  =       0
     tol     =   0.00001

Ewald parameters:
     verbose =       0, ew_type =       0, nbflag  =       1, use_pme =       1
     vdwmeth =       1, eedmeth =       1, netfrc  =       1
     Box X =   71.564   Box Y =   75.415   Box Z =   82.491
     Alpha =   90.000   Beta  =   90.000   Gamma =   90.000
     NFFT1 =   72       NFFT2 =   75       NFFT3 =   90
     Cutoff=   10.000   Tol   =0.100E-04
     Ewald Coefficient =  0.27511
     Interpolation order =    4

--------------------------------------------------------------------------------
   3.  ATOMIC COORDINATES AND VELOCITIES
--------------------------------------------------------------------------------

default_name
 begin time read from input coords =    10.000 ps

 Number of triangulated 3-point waters found:    15246

     Sum of charges from parm topology file =   0.00000192
     Forcing neutrality...

--------------------------------------------------------------------------------
   4.  RESULTS
 NSTEP =        0   TIME(PS) =       0.000  TEMP(K) =   445.33  PRESS =     0.0
 Etot   =   -126331.6423  EKtot   =     42556.7977  EPtot      =   -168888.4401
 BOND   =       291.6953  ANGLE   =       862.5545  DIHED      =      1384.1029
 1-4 NB =       392.8543  1-4 EEL =      3504.2234  VDWAALS    =     25281.5759
 EELEC  =   -200605.4463  EHBOND  =         0.0000  RESTRAINT  =         0.0000
 Ewald error estimate:   0.4011E-04
 ------------------------------------------------------------------------------

      A V E R A G E S   O V E R    5000 S T E P S

 NSTEP =     5000   TIME(PS) =      10.000  TEMP(K) =   290.45  PRESS =     0.0
 Etot   =   -133402.1117  EKtot   =     27756.1865  EPtot      =   -161158.2981
 BOND   =       340.3269  ANGLE   =       956.3740  DIHED      =      1408.1731
 1-4 NB =       388.8877  1-4 EEL =      3525.3078  VDWAALS    =     23404.8175
 EELEC  =   -191182.1852  EHBOND  =         0.0000  RESTRAINT  =         0.0000
 Ewald error estimate:   0.5912E-04
 ------------------------------------------------------------------------------

      R M S  F L U C T U A T I O N S

 NSTEP =     5000   TIME(PS) =      10.000  TEMP(K) =     8.45  PRESS =     0.0
 Etot   =      2468.2087  EKtot   =       807.1621  EPtot      =      1685.1609
 BOND   =        16.0517  ANGLE   =        24.3381  DIHED      =        13.5103
 1-4 NB =         8.2756  1-4 EEL =        24.8523  VDWAALS    =       535.8907
 EELEC  =      2170.3061  EHBOND  =         0.0000  RESTRAINT  =         0.0000
 Ewald error estimate:   0.4363E-04
 ------------------------------------------------------------------------------
