-------------------------------------------------------
          Amber 18 SANDER                              2018
          -------------------------------------------------------

  [-O]verwriting output

File Assignments:

 Here is the input file:

Equilibration of solvent water for 10 ps, without shake, constant pressure, restrain the protein and ions
 &cntrl
  nmropt = 0,
  ntx = 1,	irest = 0,	ntrx = 1,	ntxo = 1,
  ntpr = 1000,	ntwx = 1000,	ntwv = 1000,	ntwe = 1000,
  ntwr = 2000,

  ntf = 1,	ntb = 2,
  cut = 10.0,	nsnb = 20,

  ibelly = 0,	ntr = 1,

  imin = 0,
  nstlim = 10000,
  nscm = 500,
  t = 0.0,	dt = 0.001,

  temp0 = 50.0, tempi = 50.0,
  ntt = 1,
  vrand = 0,
  vlimit = 20.0,

  ntp = 1,
  taup = 0.2,

  ntc = 1,
 &end
Group input for restrained protein
10.0
RES 1 109
END
Group input for restrained VDA
10.0
RES 110
END
Group input for restrained ions
10.0
RES 111 198
END
END

--------------------------------------------------------------------------------
   1.  RESOURCE   USE:
--------------------------------------------------------------------------------

 getting box info from netcdf restart file
 NATOM  =   47720 NTYPES =      18 NBONH =   46749 MBONA  =     902
 NTHETH =    2019 MTHETA =    1227 NPHIH =    4172 MPHIA  =    3829
 NHPARM =       0 NPARM  =       0 NNB   =   71049 NRES   =   15483
 NBONA  =     902 NTHETA =    1227 NPHIA =    3829 NUMBND =      85
 NUMANG =     189 NPTRA  =     211 NATYP =      47 NPHB   =       1
 IFBOX  =       1 NMXRS  =      72 IFCAP =       0 NEXTRA =       0
 NCOPY  =       0

     BOX TYPE: RECTILINEAR

--------------------------------------------------------------------------------
   2.  CONTROL  DATA  FOR  THE  RUN
--------------------------------------------------------------------------------

default_name

General flags:
     imin    =       0, nmropt  =       0

Nature and format of input:
     ntx     =       1, irest   =       0, ntrx    =       1

Nature and format of output:
     ntxo    =       1, ntpr    =    1000, ntrx    =       1, ntwr    =    2000
     iwrap   =       0, ntwx    =    1000, ntwv    =    1000, ntwe    =    1000
     ioutfm  =       1, ntwprt  =       0, idecomp =       0, rbornstat=      0

Potential function:
     ntf     =       1, ntb     =       2, igb     =       0, nsnb    =      20
     ipol    =       0, gbsa    =       0, iesp    =       0
     dielc   =   1.00000, cut     =  10.00000, intdiel =   1.00000

Frozen or restrained atoms:
     ibelly  =       0, ntr     =       1
     restraint_wt =   0.00000

Molecular dynamics:
     nstlim  =     10000, nscm    =         0, nrespa  =         1
     t       =   0.00000, dt      =   0.00100, vlimit  =  20.00000

Berendsen (weak-coupling) temperature regulation:
     temp0   =  50.00000, tempi   =  50.00000, tautp   =   1.00000

Pressure regulation:
     ntp     =       1
     pres0   =   1.00000, comp    =  44.60000, taup    =   0.20000

Ewald parameters:
     verbose =       0, ew_type =       0, nbflag  =       1, use_pme =       1
     vdwmeth =       1, eedmeth =       1, netfrc  =       1
     Box X =   78.576   Box Y =   81.908   Box Z =   89.593
     Alpha =   90.000   Beta  =   90.000   Gamma =   90.000
     NFFT1 =   80       NFFT2 =   81       NFFT3 =   90
     Cutoff=   10.000   Tol   =0.100E-04
     Ewald Coefficient =  0.27511
     Interpolation order =    4

    LOADING THE CONSTRAINED ATOMS AS GROUPS

   5.  REFERENCE ATOM COORDINATES

  defa
    ----- READING GROUP     1; TITLE:
 Group input for restrained protein

     GROUP    1 HAS HARMONIC CONSTRAINTS    10.00000
 GRP    1 RES    1 TO   109
      Number of atoms in this group  =  1705
    ----- READING GROUP     2; TITLE:
 Group input for restrained VDA

     GROUP    2 HAS HARMONIC CONSTRAINTS    10.00000
 GRP    2 RES  110 TO   110
      Number of atoms in this group  =    72
    ----- READING GROUP     3; TITLE:
 Group input for restrained ions

     GROUP    3 HAS HARMONIC CONSTRAINTS    10.00000
 GRP    3 RES  111 TO   198
      Number of atoms in this group  =    88
    ----- END OF GROUP READ -----

--------------------------------------------------------------------------------
   3.  ATOMIC COORDINATES AND VELOCITIES
--------------------------------------------------------------------------------

default_name
 begin time read from input coords =     0.000 ps

 Number of triangulated 3-point waters found:    15285

     Sum of charges from parm topology file =   0.00000192
     Forcing neutrality...

--------------------------------------------------------------------------------
   4.  RESULTS
 NSTEP =        0   TIME(PS) =       0.000  TEMP(K) =    49.98  PRESS = -6081.5
 Etot   =   -185175.8555  EKtot   =      7109.3782  EPtot      =   -192285.2337
 BOND   =     13079.7765  ANGLE   =       282.0806  DIHED      =      1254.3723
 1-4 NB =       332.4143  1-4 EEL =      3272.7592  VDWAALS    =     29849.8412
 EELEC  =   -240356.4778  EHBOND  =         0.0000  RESTRAINT  =         0.0000
 EKCMT  =      2283.7771  VIRIAL  =     77996.8106  VOLUME     =    576613.2661
                                                    Density    =         0.8367
 Ewald error estimate:   0.1933E-03
 ------------------------------------------------------------------------------

      A V E R A G E S   O V E R   10000 S T E P S

 NSTEP =    10000   TIME(PS) =      10.000  TEMP(K) =    59.44  PRESS =  -115.7
 Etot   =   -196549.3507  EKtot   =      8454.5022  EPtot      =   -205003.8529
 BOND   =     17413.0022  ANGLE   =       334.9464  DIHED      =      1269.1591
 1-4 NB =       340.8234  1-4 EEL =      3268.7822  VDWAALS    =     44787.5620
 EELEC  =   -272621.0726  EHBOND  =         0.0000  RESTRAINT  =       202.9445
 EAMBER (non-restraint)  =   -205206.7974
 EKCMT  =      4594.9339  VIRIAL  =      5864.7382  VOLUME     =    458039.7324
                                                    Density    =         1.0556
 Ewald error estimate:   0.9560E-04
 ------------------------------------------------------------------------------

      R M S  F L U C T U A T I O N S

 NSTEP =    10000   TIME(PS) =      10.000  TEMP(K) =     6.52  PRESS =   348.1
 Etot   =      4483.7073  EKtot   =       927.4698  EPtot      =      3953.7001
 BOND   =       346.0484  ANGLE   =         4.4616  DIHED      =         3.2725
 1-4 NB =         2.8013  1-4 EEL =         6.9029  VDWAALS    =      1481.0093
 EELEC  =      5745.5264  EHBOND  =         0.0000  RESTRAINT  =        29.0165
 EAMBER (non-restraint)  =      3924.6835
 EKCMT  =       895.6446  VIRIAL  =      4261.2840  VOLUME     =     22571.7063
                                                    Density    =         0.0473
 Ewald error estimate:   0.5508E-04
 ------------------------------------------------------------------------------
