-------------------------------------------------------
          Amber 18 SANDER                              2018
          -------------------------------------------------------

  [-O]verwriting output

File Assignments:

 Here is the input file:

Equilibration of solvent water for 10 ps, without shake, constant pressure, restrain the protein and ions
 &cntrl
  nmropt = 0,
  ntx = 1,	irest = 0,	ntrx = 1,	ntxo = 1,
  ntpr = 1000,	ntwx = 1000,	ntwv = 1000,	ntwe = 1000,
  ntwr = 2000,

  ntf = 1,	ntb = 2,
  cut = 10.0,	nsnb = 20,

  ibelly = 0,	ntr = 1,

  imin = 0,
  nstlim = 10000,
  nscm = 500,
  t = 0.0,	dt = 0.001,

  temp0 = 50.0, tempi = 50.0,
  ntt = 1,
  vrand = 0,
  vlimit = 20.0,

  ntp = 1,
  taup = 0.2,

  ntc = 1,
 &end
Group input for restrained protein
10.0
RES 1 109
END
Group input for restrained VDA
10.0
RES 110
END
Group input for restrained ions
10.0
RES 111 197
END
END

--------------------------------------------------------------------------------
   1.  RESOURCE   USE:
--------------------------------------------------------------------------------

 getting box info from netcdf restart file
 NATOM  =   46887 NTYPES =      18 NBONH =   45914 MBONA  =     906
 NTHETH =    2029 MTHETA =    1232 NPHIH =    4193 MPHIA  =    3837
 NHPARM =       0 NPARM  =       0 NNB   =   69973 NRES   =   15202
 NBONA  =     906 NTHETA =    1232 NPHIA =    3837 NUMBND =      85
 NUMANG =     189 NPTRA  =     211 NATYP =      47 NPHB   =       1
 IFBOX  =       1 NMXRS  =      72 IFCAP =       0 NEXTRA =       0
 NCOPY  =       0

     BOX TYPE: RECTILINEAR

--------------------------------------------------------------------------------
   2.  CONTROL  DATA  FOR  THE  RUN
--------------------------------------------------------------------------------

default_name

General flags:
     imin    =       0, nmropt  =       0

Nature and format of input:
     ntx     =       1, irest   =       0, ntrx    =       1

Nature and format of output:
     ntxo    =       1, ntpr    =    1000, ntrx    =       1, ntwr    =    2000
     iwrap   =       0, ntwx    =    1000, ntwv    =    1000, ntwe    =    1000
     ioutfm  =       1, ntwprt  =       0, idecomp =       0, rbornstat=      0

Potential function:
     ntf     =       1, ntb     =       2, igb     =       0, nsnb    =      20
     ipol    =       0, gbsa    =       0, iesp    =       0
     dielc   =   1.00000, cut     =  10.00000, intdiel =   1.00000

Frozen or restrained atoms:
     ibelly  =       0, ntr     =       1
     restraint_wt =   0.00000

Molecular dynamics:
     nstlim  =     10000, nscm    =         0, nrespa  =         1
     t       =   0.00000, dt      =   0.00100, vlimit  =  20.00000

Berendsen (weak-coupling) temperature regulation:
     temp0   =  50.00000, tempi   =  50.00000, tautp   =   1.00000

Pressure regulation:
     ntp     =       1
     pres0   =   1.00000, comp    =  44.60000, taup    =   0.20000

Ewald parameters:
     verbose =       0, ew_type =       0, nbflag  =       1, use_pme =       1
     vdwmeth =       1, eedmeth =       1, netfrc  =       1
     Box X =   76.409   Box Y =   89.185   Box Z =   83.256
     Alpha =   90.000   Beta  =   90.000   Gamma =   90.000
     NFFT1 =   80       NFFT2 =   90       NFFT3 =   90
     Cutoff=   10.000   Tol   =0.100E-04
     Ewald Coefficient =  0.27511
     Interpolation order =    4

    LOADING THE CONSTRAINED ATOMS AS GROUPS

   5.  REFERENCE ATOM COORDINATES

  defa
    ----- READING GROUP     1; TITLE:
 Group input for restrained protein

     GROUP    1 HAS HARMONIC CONSTRAINTS    10.00000
 GRP    1 RES    1 TO   109
      Number of atoms in this group  =  1713
    ----- READING GROUP     2; TITLE:
 Group input for restrained VDA

     GROUP    2 HAS HARMONIC CONSTRAINTS    10.00000
 GRP    2 RES  110 TO   110
      Number of atoms in this group  =    72
    ----- READING GROUP     3; TITLE:
 Group input for restrained ions

     GROUP    3 HAS HARMONIC CONSTRAINTS    10.00000
 GRP    3 RES  111 TO   197
      Number of atoms in this group  =    87
    ----- END OF GROUP READ -----

--------------------------------------------------------------------------------
   3.  ATOMIC COORDINATES AND VELOCITIES
--------------------------------------------------------------------------------

default_name
 begin time read from input coords =     0.000 ps

 Number of triangulated 3-point waters found:    15005

     Sum of charges from parm topology file =   0.00000192
     Forcing neutrality...

--------------------------------------------------------------------------------
   4.  RESULTS
 NSTEP =        0   TIME(PS) =       0.000  TEMP(K) =    49.98  PRESS = -6159.6
 Etot   =   -182177.5742  EKtot   =      6985.2092  EPtot      =   -189162.7834
 BOND   =     12815.8439  ANGLE   =       270.8023  DIHED      =      1249.8371
 1-4 NB =       341.9637  1-4 EEL =      3295.8988  VDWAALS    =     29160.1139
 EELEC  =   -236297.2432  EHBOND  =         0.0000  RESTRAINT  =         0.0000
 EKCMT  =      2263.9494  VIRIAL  =     77718.0304  VOLUME     =    567348.4075
                                                    Density    =         0.8356
 Ewald error estimate:   0.1100E-03
 ------------------------------------------------------------------------------

      A V E R A G E S   O V E R   10000 S T E P S

 NSTEP =    10000   TIME(PS) =      10.000  TEMP(K) =    59.13  PRESS =  -116.6
 Etot   =   -193057.0902  EKtot   =      8263.9250  EPtot      =   -201321.0152
 BOND   =     17063.2572  ANGLE   =       325.4226  DIHED      =      1262.3567
 1-4 NB =       349.3814  1-4 EEL =      3288.9001  VDWAALS    =     43854.1915
 EELEC  =   -267651.3048  EHBOND  =         0.0000  RESTRAINT  =       186.7802
 EAMBER (non-restraint)  =   -201507.7954
 EKCMT  =      4488.3747  VIRIAL  =      5745.9677  VOLUME     =    450837.2146
                                                    Density    =         1.0541
 Ewald error estimate:   0.1362E-03
 ------------------------------------------------------------------------------

      R M S  F L U C T U A T I O N S

 NSTEP =    10000   TIME(PS) =      10.000  TEMP(K) =     6.15  PRESS =   351.2
 Etot   =      4274.9360  EKtot   =       859.1024  EPtot      =      3784.2149
 BOND   =       334.1405  ANGLE   =         4.3751  DIHED      =         3.1082
 1-4 NB =         2.7908  1-4 EEL =         7.1854  VDWAALS    =      1409.8763
 EELEC  =      5482.5177  EHBOND  =         0.0000  RESTRAINT  =        23.3963
 EAMBER (non-restraint)  =      3760.8187
 EKCMT  =       850.6775  VIRIAL  =      4216.5555  VOLUME     =     23266.6030
                                                    Density    =         0.0497
 Ewald error estimate:   0.4542E-04
 ------------------------------------------------------------------------------
