-------------------------------------------------------
          Amber 18 SANDER                              2018
          -------------------------------------------------------

  [-O]verwriting output

File Assignments:

 Here is the input file:

Equilibration of solvent water for 10 ps, without shake, constant pressure, restrain the protein and ions
 &cntrl
  nmropt = 0,
  ntx = 1,	irest = 0,	ntrx = 1,	ntxo = 1,
  ntpr = 1000,	ntwx = 1000,	ntwv = 1000,	ntwe = 1000,
  ntwr = 2000,

  ntf = 1,	ntb = 2,
  cut = 10.0,	nsnb = 20,

  ibelly = 0,	ntr = 1,

  imin = 0,
  nstlim = 10000,
  nscm = 500,
  t = 0.0,	dt = 0.001,

  temp0 = 50.0, tempi = 50.0,
  ntt = 1,
  vrand = 0,
  vlimit = 20.0,

  ntp = 1,
  taup = 0.2,

  ntc = 1,
 &end
Group input for restrained protein
10.0
RES 1 109
END
Group input for restrained VDA
10.0
RES 110
END
Group input for restrained ions
10.0
RES 111 198
END
END

--------------------------------------------------------------------------------
   1.  RESOURCE   USE:
--------------------------------------------------------------------------------

 getting box info from netcdf restart file
 NATOM  =   47604 NTYPES =      18 NBONH =   46631 MBONA  =     906
 NTHETH =    2017 MTHETA =    1233 NPHIH =    4165 MPHIA  =    3845
 NHPARM =       0 NPARM  =       0 NNB   =   70902 NRES   =   15444
 NBONA  =     906 NTHETA =    1233 NPHIA =    3845 NUMBND =      85
 NUMANG =     189 NPTRA  =     211 NATYP =      47 NPHB   =       1
 IFBOX  =       1 NMXRS  =      72 IFCAP =       0 NEXTRA =       0
 NCOPY  =       0

     BOX TYPE: RECTILINEAR

--------------------------------------------------------------------------------
   2.  CONTROL  DATA  FOR  THE  RUN
--------------------------------------------------------------------------------

default_name

General flags:
     imin    =       0, nmropt  =       0

Nature and format of input:
     ntx     =       1, irest   =       0, ntrx    =       1

Nature and format of output:
     ntxo    =       1, ntpr    =    1000, ntrx    =       1, ntwr    =    2000
     iwrap   =       0, ntwx    =    1000, ntwv    =    1000, ntwe    =    1000
     ioutfm  =       1, ntwprt  =       0, idecomp =       0, rbornstat=      0

Potential function:
     ntf     =       1, ntb     =       2, igb     =       0, nsnb    =      20
     ipol    =       0, gbsa    =       0, iesp    =       0
     dielc   =   1.00000, cut     =  10.00000, intdiel =   1.00000

Frozen or restrained atoms:
     ibelly  =       0, ntr     =       1
     restraint_wt =   0.00000

Molecular dynamics:
     nstlim  =     10000, nscm    =         0, nrespa  =         1
     t       =   0.00000, dt      =   0.00100, vlimit  =  20.00000

Berendsen (weak-coupling) temperature regulation:
     temp0   =  50.00000, tempi   =  50.00000, tautp   =   1.00000

Pressure regulation:
     ntp     =       1
     pres0   =   1.00000, comp    =  44.60000, taup    =   0.20000

Ewald parameters:
     verbose =       0, ew_type =       0, nbflag  =       1, use_pme =       1
     vdwmeth =       1, eedmeth =       1, netfrc  =       1
     Box X =   77.725   Box Y =   81.908   Box Z =   89.593
     Alpha =   90.000   Beta  =   90.000   Gamma =   90.000
     NFFT1 =   80       NFFT2 =   81       NFFT3 =   90
     Cutoff=   10.000   Tol   =0.100E-04
     Ewald Coefficient =  0.27511
     Interpolation order =    4

    LOADING THE CONSTRAINED ATOMS AS GROUPS

   5.  REFERENCE ATOM COORDINATES

  defa
    ----- READING GROUP     1; TITLE:
 Group input for restrained protein

     GROUP    1 HAS HARMONIC CONSTRAINTS    10.00000
 GRP    1 RES    1 TO   109
      Number of atoms in this group  =  1706
    ----- READING GROUP     2; TITLE:
 Group input for restrained VDA

     GROUP    2 HAS HARMONIC CONSTRAINTS    10.00000
 GRP    2 RES  110 TO   110
      Number of atoms in this group  =    72
    ----- READING GROUP     3; TITLE:
 Group input for restrained ions

     GROUP    3 HAS HARMONIC CONSTRAINTS    10.00000
 GRP    3 RES  111 TO   198
      Number of atoms in this group  =    88
    ----- END OF GROUP READ -----

--------------------------------------------------------------------------------
   3.  ATOMIC COORDINATES AND VELOCITIES
--------------------------------------------------------------------------------

default_name
 begin time read from input coords =     0.000 ps

 Number of triangulated 3-point waters found:    15246

     Sum of charges from parm topology file =   0.00000192
     Forcing neutrality...

--------------------------------------------------------------------------------
   4.  RESULTS
 NSTEP =        0   TIME(PS) =       0.000  TEMP(K) =    49.99  PRESS = -6196.5
 Etot   =   -184336.9222  EKtot   =      7092.7996  EPtot      =   -191429.7218
 BOND   =     13038.3355  ANGLE   =       295.9044  DIHED      =      1231.1688
 1-4 NB =       334.9782  1-4 EEL =      3522.1532  VDWAALS    =     29629.6504
 EELEC  =   -239481.9123  EHBOND  =         0.0000  RESTRAINT  =         0.0000
 EKCMT  =      2301.8468  VIRIAL  =     78611.1656  VOLUME     =    570368.7911
                                                    Density    =         0.8439
 Ewald error estimate:   0.1850E-03
 ------------------------------------------------------------------------------

      A V E R A G E S   O V E R   10000 S T E P S

 NSTEP =    10000   TIME(PS) =      10.000  TEMP(K) =    59.38  PRESS =  -110.1
 Etot   =   -195795.5553  EKtot   =      8425.9570  EPtot      =   -204221.5122
 BOND   =     17315.2201  ANGLE   =       349.9117  DIHED      =      1245.8546
 1-4 NB =       345.6729  1-4 EEL =      3518.1305  VDWAALS    =     44554.1045
 EELEC  =   -271753.7035  EHBOND  =         0.0000  RESTRAINT  =       203.2969
 EAMBER (non-restraint)  =   -204424.8091
 EKCMT  =      4578.0406  VIRIAL  =      5780.1108  VOLUME     =    456648.6541
                                                    Density    =         1.0558
 Ewald error estimate:   0.1128E-03
 ------------------------------------------------------------------------------

      R M S  F L U C T U A T I O N S

 NSTEP =    10000   TIME(PS) =      10.000  TEMP(K) =     6.75  PRESS =   356.3
 Etot   =      4396.5171  EKtot   =       958.2199  EPtot      =      3835.3639
 BOND   =       337.7731  ANGLE   =         4.2562  DIHED      =         3.2051
 1-4 NB =         2.9495  1-4 EEL =         7.2054  VDWAALS    =      1472.7728
 EELEC  =      5615.2447  EHBOND  =         0.0000  RESTRAINT  =        27.3269
 EAMBER (non-restraint)  =      3808.0370
 EKCMT  =       939.0787  VIRIAL  =      4318.0938  VOLUME     =     20014.4068
                                                    Density    =         0.0421
 Ewald error estimate:   0.4620E-04
 ------------------------------------------------------------------------------
