-------------------------------------------------------
          Amber 18 SANDER                              2018
          -------------------------------------------------------

  [-O]verwriting output

File Assignments:

 Here is the input file:

Equilibration of the whole system at 50 K for 10 ps with shake at constant volume and constant temperature
 &cntrl
  nmropt = 0,
  ntx = 1,	irest = 0,	ntrx = 1,	ntxo = 1,
  ntpr = 1000,	ntwx = 1000,	ntwv = 1000,	ntwe = 1000,
  ntwr = 1000,

  ntf = 2,	ntb = 1,
  cut = 10.0,	nsnb = 20,

  ibelly = 0,	ntr = 0,

  imin = 0,
  nstlim = 5000,
  nscm = 500,
  t = 0.0,	dt = 0.002,

  temp0 = 50.0,	tempi = 50.0,
  ntt = 1,
  vrand = 0,
  vlimit = 15.0,

  ntc = 2,
 &end

--------------------------------------------------------------------------------
   1.  RESOURCE   USE:
--------------------------------------------------------------------------------

 getting new box info from bottom of inpcrd

 NATOM  =   47720 NTYPES =      18 NBONH =   46749 MBONA  =     902
 NTHETH =    2019 MTHETA =    1227 NPHIH =    4172 MPHIA  =    3829
 NHPARM =       0 NPARM  =       0 NNB   =   71049 NRES   =   15483
 NBONA  =     902 NTHETA =    1227 NPHIA =    3829 NUMBND =      85
 NUMANG =     189 NPTRA  =     211 NATYP =      47 NPHB   =       1
 IFBOX  =       1 NMXRS  =      72 IFCAP =       0 NEXTRA =       0
 NCOPY  =       0

     BOX TYPE: RECTILINEAR

--------------------------------------------------------------------------------
   2.  CONTROL  DATA  FOR  THE  RUN
--------------------------------------------------------------------------------

default_name

General flags:
     imin    =       0, nmropt  =       0

Nature and format of input:
     ntx     =       1, irest   =       0, ntrx    =       1

Nature and format of output:
     ntxo    =       1, ntpr    =    1000, ntrx    =       1, ntwr    =    1000
     iwrap   =       0, ntwx    =    1000, ntwv    =    1000, ntwe    =    1000
     ioutfm  =       1, ntwprt  =       0, idecomp =       0, rbornstat=      0

Potential function:
     ntf     =       2, ntb     =       1, igb     =       0, nsnb    =      20
     ipol    =       0, gbsa    =       0, iesp    =       0
     dielc   =   1.00000, cut     =  10.00000, intdiel =   1.00000

Frozen or restrained atoms:
     ibelly  =       0, ntr     =       0

Molecular dynamics:
     nstlim  =      5000, nscm    =       500, nrespa  =         1
     t       =   0.00000, dt      =   0.00200, vlimit  =  15.00000

Berendsen (weak-coupling) temperature regulation:
     temp0   =  50.00000, tempi   =  50.00000, tautp   =   1.00000

SHAKE:
     ntc     =       2, jfastw  =       0
     tol     =   0.00001

Ewald parameters:
     verbose =       0, ew_type =       0, nbflag  =       1, use_pme =       1
     vdwmeth =       1, eedmeth =       1, netfrc  =       1
     Box X =   72.044   Box Y =   75.099   Box Z =   82.145
     Alpha =   90.000   Beta  =   90.000   Gamma =   90.000
     NFFT1 =   72       NFFT2 =   75       NFFT3 =   90
     Cutoff=   10.000   Tol   =0.100E-04
     Ewald Coefficient =  0.27511
     Interpolation order =    4

--------------------------------------------------------------------------------
   3.  ATOMIC COORDINATES AND VELOCITIES
--------------------------------------------------------------------------------

default_name
 begin time read from input coords =    10.000 ps

 Number of triangulated 3-point waters found:    15285

     Sum of charges from parm topology file =   0.00000192
     Forcing neutrality...

--------------------------------------------------------------------------------
   4.  RESULTS
 NSTEP =        0   TIME(PS) =       0.000  TEMP(K) =    74.22  PRESS =     0.0
 Etot   =   -219447.7315  EKtot   =      7109.3782  EPtot      =   -226557.1097
 BOND   =        91.8185  ANGLE   =       338.3734  DIHED      =      1272.4056
 1-4 NB =       339.1414  1-4 EEL =      3258.8333  VDWAALS    =     46231.3650
 EELEC  =   -278089.0469  EHBOND  =         0.0000  RESTRAINT  =         0.0000
 Ewald error estimate:   0.1301E-03
 ------------------------------------------------------------------------------

      A V E R A G E S   O V E R    5000 S T E P S

 NSTEP =     5000   TIME(PS) =      10.000  TEMP(K) =    53.89  PRESS =     0.0
 Etot   =   -190544.5323  EKtot   =      5162.0366  EPtot      =   -195706.5689
 BOND   =        91.9155  ANGLE   =       355.7261  DIHED      =      1265.7582
 1-4 NB =       343.7591  1-4 EEL =      3262.9391  VDWAALS    =     37872.7630
 EELEC  =   -238899.4299  EHBOND  =         0.0000  RESTRAINT  =         0.0000
 Ewald error estimate:   0.2278E-03
 ------------------------------------------------------------------------------

      R M S  F L U C T U A T I O N S

 NSTEP =     5000   TIME(PS) =      10.000  TEMP(K) =     4.12  PRESS =     0.0
 Etot   =      1003.2592  EKtot   =       394.5169  EPtot      =       758.2417
 BOND   =         3.4657  ANGLE   =         6.0507  DIHED      =         7.9081
 1-4 NB =         3.5834  1-4 EEL =        11.0676  VDWAALS    =       606.2265
 EELEC  =       858.3371  EHBOND  =         0.0000  RESTRAINT  =         0.0000
 Ewald error estimate:   0.4255E-04
 ------------------------------------------------------------------------------
