-------------------------------------------------------
          Amber 18 SANDER                              2018
          -------------------------------------------------------

  [-O]verwriting output

File Assignments:

 Here is the input file:

Equilibration of the whole system at 300 K for 10 ps with shake at constant volume and constant temperature
 &cntrl
  nmropt = 0,
  ntx = 1,	irest = 0,	ntrx = 1,	ntxo = 1,
  ntpr = 1000,	ntwx = 1000,	ntwv = 1000,	ntwe = 1000,
  ntwr = 1000,

  ntf = 2,	ntb = 1,
  cut = 10.0,	nsnb = 20,

  ibelly = 0,	ntr = 0,

  imin = 0,
  nstlim = 5000,
  nscm = 500,
  t = 0.0,	dt = 0.002,

  temp0 = 300.0, tempi = 300.0,
  ntt = 1,
  vrand = 0,
  vlimit = 15.0,

  ntc = 2,
 &end

--------------------------------------------------------------------------------
   1.  RESOURCE   USE:
--------------------------------------------------------------------------------

 getting new box info from bottom of inpcrd

 NATOM  =   46887 NTYPES =      18 NBONH =   45914 MBONA  =     906
 NTHETH =    2029 MTHETA =    1232 NPHIH =    4193 MPHIA  =    3837
 NHPARM =       0 NPARM  =       0 NNB   =   69973 NRES   =   15202
 NBONA  =     906 NTHETA =    1232 NPHIA =    3837 NUMBND =      85
 NUMANG =     189 NPTRA  =     211 NATYP =      47 NPHB   =       1
 IFBOX  =       1 NMXRS  =      72 IFCAP =       0 NEXTRA =       0
 NCOPY  =       0

     BOX TYPE: RECTILINEAR

--------------------------------------------------------------------------------
   2.  CONTROL  DATA  FOR  THE  RUN
--------------------------------------------------------------------------------

default_name

General flags:
     imin    =       0, nmropt  =       0

Nature and format of input:
     ntx     =       1, irest   =       0, ntrx    =       1

Nature and format of output:
     ntxo    =       1, ntpr    =    1000, ntrx    =       1, ntwr    =    1000
     iwrap   =       0, ntwx    =    1000, ntwv    =    1000, ntwe    =    1000
     ioutfm  =       1, ntwprt  =       0, idecomp =       0, rbornstat=      0

Potential function:
     ntf     =       2, ntb     =       1, igb     =       0, nsnb    =      20
     ipol    =       0, gbsa    =       0, iesp    =       0
     dielc   =   1.00000, cut     =  10.00000, intdiel =   1.00000

Frozen or restrained atoms:
     ibelly  =       0, ntr     =       0

Molecular dynamics:
     nstlim  =      5000, nscm    =       500, nrespa  =         1
     t       =   0.00000, dt      =   0.00200, vlimit  =  15.00000

Berendsen (weak-coupling) temperature regulation:
     temp0   = 300.00000, tempi   = 300.00000, tautp   =   1.00000

SHAKE:
     ntc     =       2, jfastw  =       0
     tol     =   0.00001

Ewald parameters:
     verbose =       0, ew_type =       0, nbflag  =       1, use_pme =       1
     vdwmeth =       1, eedmeth =       1, netfrc  =       1
     Box X =   70.013   Box Y =   81.719   Box Z =   76.286
     Alpha =   90.000   Beta  =   90.000   Gamma =   90.000
     NFFT1 =   72       NFFT2 =   81       NFFT3 =   80
     Cutoff=   10.000   Tol   =0.100E-04
     Ewald Coefficient =  0.27511
     Interpolation order =    4

--------------------------------------------------------------------------------
   3.  ATOMIC COORDINATES AND VELOCITIES
--------------------------------------------------------------------------------

default_name
 begin time read from input coords =    10.000 ps

 Number of triangulated 3-point waters found:    15005

     Sum of charges from parm topology file =   0.00000192
     Forcing neutrality...

--------------------------------------------------------------------------------
   4.  RESULTS
 NSTEP =        0   TIME(PS) =       0.000  TEMP(K) =   445.21  PRESS =     0.0
 Etot   =   -124634.5203  EKtot   =     41911.2552  EPtot      =   -166545.7754
 BOND   =       293.0613  ANGLE   =       846.4807  DIHED      =      1392.9054
 1-4 NB =       392.6275  1-4 EEL =      3239.1318  VDWAALS    =     24873.0843
 EELEC  =   -197583.0665  EHBOND  =         0.0000  RESTRAINT  =         0.0000
 Ewald error estimate:   0.7538E-05
 ------------------------------------------------------------------------------

      A V E R A G E S   O V E R    5000 S T E P S

 NSTEP =     5000   TIME(PS) =      10.000  TEMP(K) =   290.48  PRESS =     0.0
 Etot   =   -131677.1115  EKtot   =     27344.8309  EPtot      =   -159021.9424
 BOND   =       339.5291  ANGLE   =       948.8378  DIHED      =      1410.2917
 1-4 NB =       391.2192  1-4 EEL =      3255.1164  VDWAALS    =     23135.5338
 EELEC  =   -188502.4703  EHBOND  =         0.0000  RESTRAINT  =         0.0000
 Ewald error estimate:   0.5580E-04
 ------------------------------------------------------------------------------

      R M S  F L U C T U A T I O N S

 NSTEP =     5000   TIME(PS) =      10.000  TEMP(K) =     8.42  PRESS =     0.0
 Etot   =      2432.6965  EKtot   =       792.7822  EPtot      =      1662.9437
 BOND   =        15.8185  ANGLE   =        24.8586  DIHED      =        12.3088
 1-4 NB =         8.8697  1-4 EEL =        25.4691  VDWAALS    =       542.6742
 EELEC  =      2160.8122  EHBOND  =         0.0000  RESTRAINT  =         0.0000
 Ewald error estimate:   0.4110E-04
 ------------------------------------------------------------------------------
